/*--------------------------------*- C++ -*----------------------------------*\
| =========                 |                                                 |
| \\      /  F ield         | OpenFOAM: The Open Source CFD Toolbox           |
|  \\    /   O peration     | Version:  5                                     |
|   \\  /    A nd           | Web:      www.OpenFOAM.org                      |
|    \\/     M anipulation  |                                                 |
\*---------------------------------------------------------------------------*/
FoamFile
{
    version     2.0;
    format      ascii;
    class       dictionary;
    object      controlDict;
}
// * * * * * * * * * * * * * * * * * * * * * * * * * * * * * * * * * * * * * //

application     simpleFoam;

startFrom       latestTime;

startTime       0;

stopAt          endTime;

endTime         600;

deltaT          1;

writeControl    timeStep;

writeInterval   100;

purgeWrite      4;

writeFormat     ascii;

writePrecision  7;

writeCompression uncompressed;

timeFormat      general;

timePrecision   6;

runTimeModifiable true;

functions
{
  //#include "cuttingPlane"
    #include "forceCoeffs"
  //#include "vorticity1"
}

// ************************************************************************* //
